import mods.itemstages.ItemStages;
ItemStages.restrict(<item:kubejs:tier_6_research>, "Tier6Research");


ItemStages.restrict(<item:rftoolsbuilder:builder>, "BuildingMK5");
ItemStages.restrict(<item:constructionwand:infinity_wand>, "BuildingMK5");
ItemStages.restrict(<item:constructionwand:core_angel>, "BuildingMK5");
ItemStages.restrict(<item:constructionwand:core_destruction>, "BuildingMK5");


ItemStages.restrict(<item:enderstorage:ender_tank>, "HydroDynamicsMK5");

